! R36 NASA7 thermo generated by least-squares fitting from uploaded NASA9 YAML
THERMO
   298.150  1000.000  5000.000
N2O4                    N   2O   4          G   298.150  5000.000  1012.120    1
 1.05731688E+01 5.71278192E-03-2.38103576E-06 4.44828341E-10-3.09590031E-14    2
-2.88103484E+03-2.65712080E+01 3.08258143E+00 2.84512912E-02-3.06715610E-05    3
 1.87964688E-08-5.34391078E-12-8.54567593E+02 1.17901871E+01                   4
NO2                     N   1O   2          G   298.150  5000.000  1012.120    1
 4.69241781E+00 2.40362677E-03-9.93882778E-07 1.84481094E-10-1.27684062E-14    2
 2.26518707E+03 9.72441523E-01 2.65915085E+00 7.83655157E-03-7.74957601E-06    3
 5.43094386E-09-1.90300512E-12 2.90060588E+03 1.16867255E+01                   4
CH3NHNH2                C   1H   6N   2     G   298.150  5000.000  1012.120    1
 6.31992366E+00 1.54715897E-02-5.25188498E-06 8.11366935E-10-4.69143546E-14    2
 8.19485960E+03-9.70718452E+00-8.42213716E-02 3.30351088E-02-2.79655715E-05    3
 1.89272342E-08-6.54417809E-12 1.01599406E+04 2.39112873E+01                   4
CH3NNH                  C   1H   4N   2     G   298.150  5000.000  1012.120    1
 5.35193554E+00 1.17509726E-02-4.10755047E-06 6.48888355E-10-3.81732349E-14    2
 1.87935266E+04-3.87276613E+00 3.08609731E+00 8.57977771E-03 1.43613467E-05    3
-1.75949198E-08 5.21123893E-12 1.99999341E+04 1.04850078E+01                   4
CH3NNH2                 C   1H   5N   2     G   298.150  5000.000  1012.120    1
 6.36484227E+00 1.31369930E-02-4.51123378E-06 7.02892309E-10-4.08704110E-14    2
 2.19390057E+04-8.30763706E+00 2.46163470E+00 1.82574526E-02-1.49694457E-06    3
-4.95798511E-09 1.43400065E-12 2.33977667E+04 1.35458119E+01                   4
HONO                    H   1N   1O   2     G   298.150  5000.000  1012.120    1
 5.55290541E+00 4.03996650E-03-1.52873505E-06 2.67184281E-10-1.77235865E-14    2
-1.12921982E+04-3.31891075E+00 2.02430958E+00 1.59426244E-02-1.81689190E-05    3
 1.19921426E-08-3.46980765E-12-1.04088554E+04 1.44281644E+01                   4
CH3                     C   1H   3          G   298.150  5000.000  1012.120    1
 2.88592650E+00 5.97538927E-03-2.11643402E-06 3.49961785E-10-2.21495680E-14    2
 1.64549818E+04 5.29294751E+00 2.66767763E+00 9.33192254E-03-1.20366341E-05    3
 1.09334231E-08-3.79148425E-12 1.64101052E+04 5.81905723E+00                   4
CH4                     C   1H   4          G   298.150  5000.000  1012.120    1
 1.77199401E+00 9.90296922E-03-3.63781360E-06 6.18450347E-10-4.00022888E-14    2
-1.00782285E+04 9.25612692E+00 1.51275115E+00 1.18737275E-02-1.27895405E-05    3
 1.36585513E-08-5.58457282E-12-9.90374014E+03 1.06926419E+01                   4
CH3NN                   C   1H   3N   2     G   298.150  5000.000  1012.120    1
 5.59079886E+00 8.94372383E-03-3.11742834E-06 4.90769559E-10-2.87498034E-14    2
 2.58266174E+04-3.20338693E+00 3.40113296E+00 1.03585708E-02 1.56922928E-06    3
-4.31107614E-09 8.87728238E-13 2.67640809E+04 9.53593658E+00                   4
N2                      N   2               G   298.150  5000.000  1012.120    1
 2.95131881E+00 1.42972418E-03-5.28895012E-07 9.08065506E-11-5.87913804E-15    2
-9.26686337E+02 5.87158323E+00 3.49669528E+00 7.82472636E-06-3.19842393E-07    3
 1.64664325E-09-8.89193818E-13-1.04289580E+03 3.12399286E+00                   4
CH3NO2                  C   1H   3N   1O   2G   298.150  4000.000  1010.100    1
 5.53399775E+00 1.27149643E-02-5.19453412E-06 9.82225461E-10-7.04869862E-14    2
-1.11408321E+04 6.55598369E-02 7.46018845E-03 2.86532660E-02-2.38241573E-05    3
 1.18205008E-08-2.64689864E-12-9.56723518E+03 2.86502098E+01                   4
NO                      N   1O   1          G   298.150  5000.000  1012.120    1
 3.22577275E+00 1.24300819E-03-4.56262269E-07 7.54617716E-11-4.49990517E-15    2
 9.94544529E+03 6.59282737E+00 4.13254644E+00-3.89499090E-03 9.08995046E-06    3
-7.28269527E-09 2.03792959E-12 9.85662143E+03 2.63597530E+00                   4
H2O                     H   2O   1          G   298.150  5000.000  1012.120    1
 2.68539387E+00 3.00467940E-03-8.39676269E-07 1.12364991E-10-5.78496076E-15    2
-2.99101098E+04 6.82826970E+00 3.54172705E+00 2.43682305E-03-3.82305465E-06    3
 4.38640006E-09-1.56919954E-12-3.02437971E+04 1.93869720E+00                   4
OH                      H   1O   1          G   298.150  5000.000  1012.120    1
 2.87985391E+00 1.01744887E-03-2.30109671E-07 2.24150765E-11-5.64088664E-16    2
 3.68125892E+03 5.63480322E+00 3.68675790E+00-1.51904840E-04-7.87598117E-07    3
 1.44827784E-09-5.01282751E-13 3.38846168E+03 1.15878249E+00                   4
H                       H   1               G   298.150  5000.000  1012.120    1
 2.51142784E+00-7.40050912E-06 2.42252571E-09-3.53826121E-13 1.89320027E-17    2
 2.54840184E+04-5.19233877E-01 2.48305200E+00 1.75156629E-04-4.74611066E-07    3
 5.23373337E-10-2.05564679E-13 2.54902727E+04-3.90500593E-01                   4
O                       O   1               G   298.150  5000.000  1012.120    1
 2.54964449E+00-2.97159017E-05-3.19931916E-09 4.70566294E-12-4.56278915E-16    2
 2.92477871E+04 4.89094396E+00 2.96886667E+00-1.74652563E-03 2.66939135E-06    3
-1.83655092E-09 4.61819524E-13 2.91639165E+04 2.87366543E+00                   4
O2                      O   2               G   298.150  5000.000  1012.120    1
 3.71200834E+00 5.95069057E-04-1.15966897E-07 1.53803809E-11-9.32693245E-16    2
-1.24143420E+03 3.12409099E+00 3.20166884E+00 1.20983011E-03-6.49529723E-07    3
 1.21764349E-09-7.82861918E-13-1.00464884E+03 6.09627539E+00                   4
HNO                     H   1N   1O   1     G   298.150  5000.000  1012.120    1
 3.20087299E+00 2.91235027E-03-3.41602172E-07-5.12915750E-11 8.16531815E-15    2
 1.18089012E+04 7.49122895E+00 4.39161330E+00-4.51961363E-03 1.55189649E-05    3
-1.40678900E-08 4.40894489E-12 1.16710916E+04 2.33930419E+00                   4
N2O                     N   2O   1          G   298.150  5000.000  1012.120    1
 4.73789612E+00 2.79287114E-03-1.13505486E-06 2.08357109E-10-1.43044369E-14    2
 8.16928714E+03-1.72572816E+00 2.42979118E+00 1.02650011E-02-1.15962919E-05    3
 7.94569670E-09-2.45267236E-12 8.78189574E+03 1.00072773E+01                   4
H2                      H   2               G   298.150  5000.000  1012.120    1
 3.02024945E+00 6.62611996E-04-3.99459261E-08-1.20293113E-11 1.74609054E-15    2
-8.45811163E+02-1.50820639E+00 3.15716599E+00 1.90810356E-03-3.66407431E-06    3
 3.05704613E-09-8.25733018E-13-9.99397786E+02-2.70378106E+00                   4
CH3O                    C   1H   3O   1     G   298.150  3000.000  1009.090    1
 4.12298746E+00 6.91174464E-03-1.85933908E-06 1.21750230E-10 1.24293574E-14    2
 4.55482700E+01 1.14876168E+00 2.06259973E+00 7.40602585E-03 5.37872369E-06    3
-8.16015875E-09 2.66070161E-12 9.87066623E+02 1.33668357E+01                   4
CH2O                    C   1H   2O   1     G   298.150  3500.000  1011.110    1
 1.90322728E+00 8.68548438E-03-3.98490741E-06 8.65377806E-10-7.27435342E-14    2
-1.40052121E+04 1.30248160E+01 4.18579460E+00-5.37122630E-03 2.57735882E-05    3
-2.58643367E-08 8.72937020E-12-1.42571810E+04 3.14394936E+00                   4
HCO                     C   1H   1O   1     G   298.150  5000.000  1012.120    1
 3.61571649E+00 3.10105334E-03-1.12888114E-06 1.87090851E-10-1.14729843E-14    2
 3.74130402E+03 5.29555506E+00 4.01326854E+00-1.65836571E-03 9.77262081E-06    3
-9.17500616E-09 2.82330695E-12 3.86329116E+03 4.27008355E+00                   4
CO                      C   1O   1          G   298.150  5000.000  1012.120    1
 3.04664994E+00 1.39427655E-03-5.31089383E-07 9.38895315E-11-6.24773793E-15    2
-1.42810261E+04 6.01238042E+00 3.46208520E+00 1.94531513E-05 1.65631455E-07    3
 1.01007573E-09-6.56402966E-13-1.43401095E+04 4.02642414E+00                   4
HCN                     C   1H   1N   1     G   298.150  5000.000  1012.120    1
 3.80889836E+00 3.10257835E-03-1.03140828E-06 1.58303398E-10-9.14717710E-15    2
 1.47380199E+04 1.57626517E+00 2.29547824E+00 9.81597461E-03-1.28394190E-05    3
 9.62378456E-09-2.85375207E-12 1.50333908E+04 8.77733330E+00                   4
NH                      H   1N   1          G   298.150  5000.000  1012.120    1
 2.80519582E+00 1.28241244E-03-3.92066571E-07 6.97907984E-11-4.75638071E-15    2
 4.22448695E+04 5.64658266E+00 3.60987452E+00-4.77473362E-04 5.35263065E-07    3
 2.98100330E-10-2.02635489E-13 4.19935098E+04 1.35758735E+00                   4
CO2                     C   1O   2          G   298.150  5000.000  1012.120    1
 4.48866645E+00 3.02953913E-03-1.20000244E-06 2.19406407E-10-1.50078677E-14    2
-4.90044535E+04-1.11203944E+00 2.22932727E+00 1.01837894E-02-1.08838052E-05    3
 7.13212300E-09-2.13437792E-12-4.83984508E+04 1.04083921E+01                   4
N                       N   1               G   298.150  5000.000  1012.120    1
 2.40517692E+00 1.95310306E-04-1.28103423E-07 3.18146190E-11-2.11973708E-15    2
 5.61710969E+04 4.70994517E+00 2.48366487E+00 1.69580081E-04-4.59280588E-07    3
 5.06260634E-10-1.98764771E-13 5.61364767E+04 4.24997377E+00                   4
END
