THERMO
   300.000  1000.000  5000.000

N2O4              TPIS89N   2O   4          G   200.000  6000.000  1000.000    1
 1.15752899E+01 4.01616086E-03-1.57178323E-06 2.68274309E-10-1.66922019E-14    2
-2.92191226E+03-3.19488439E+01 3.02002308E+00 2.95904321E-02-3.01342458E-05    3
 1.42360407E-08-2.44100049E-12-6.40040162E+02 1.18069606E+01 1.33632866E+03    4
NO2               L 7/88N   1O   2          G   200.000  6000.000  1000.000    1
 0.48847540E+01 0.21723955E-02-0.82806909E-06 0.15747510E-09-0.10510895E-13    2
 0.23164982E+04-0.11741695E+00 0.39440312E+01-0.15854290E-02 0.16657812E-04    3
-0.20475426E-07 0.78350564E-11 0.28966180E+04 0.63119919E+01 0.41124701E+04    4
CH3NHNH2          A10/04C   1H   6N   2     G   200.000  6000.000  1000.000    1
 6.63737309E+00 1.56702023E-02-5.47121574E-06 8.65945432E-10-5.11109616E-14    2
 9.95613633E+03-1.05806558E+01 3.36546357E+00 9.16487019E-03 4.07415430E-05    3
-6.18270852E-08 2.62064026E-11 1.14982139E+04 9.75314576E+00 1.31591158E+04    4
CH3NNH2           T 9/96C   1H   5N   2     G   200.000  6000.000  1000.000    1
 6.41280183E+00 1.07448898E-02-3.85726225E-06 6.22339742E-10-3.72381596E-14    2
 3.29519708E+04-6.94516757E+00 4.37960260E+00 7.61069318E-03 1.69547382E-05    3
-2.46175363E-08 9.55803332E-12 3.40058496E+04 5.84234573E+00 3.57555570E+04    4 
HONO              RUS 89H   1N   1O   2     G   200.000  6000.000  1000.000    1
 0.57919018E+01 0.36515212E-02-0.12928936E-05 0.20688716E-09-0.12315254E-13    2
-0.11565589E+05-0.40558233E+01 0.32141709E+01 0.81276869E-02 0.16602559E-05    3
-0.95285182E-08 4.87150580E-12-0.10753237E+05 9.82195040E+00-0.94355439E+04    4
CH3NNH            T02/16C   1H   4N   2     G   200.000  6000.000  1000.000    1
 6.50776248E+00 1.03026460E-02-3.62249064E-06 5.76835929E-10-3.42163138E-14    2
 3.03610663E+03-1.02336608E+01 2.52724215E+00 9.93994949E-03 2.39538596E-05    3
-3.93376729E-08 1.66471592E-11 4.64821060E+03 1.29718134E+01 5.98525902E+03    4
H2                RUS 78H   2               G   200.000  6000.000  1000.000    1
 0.29328305E+01 0.82659802E-03-0.14640057E-06 0.15409851E-10-0.68879615E-15    2
-0.81305582E+03-0.10243164E+01 0.23443029E+01 0.79804248E-02-0.19477917E-04    3
 0.20156967E-07-0.73760289E-11-0.91792413E+03 0.68300218E+00 0.00000000E+00    4
NO                RUS 89N   1O   1          G   200.000  6000.000  1000.000    1
 3.26071234E+00 1.19101135E-03-4.29122646E-07 6.94481463E-11-4.03295681E-15    2
 9.92143132E+03 6.36900518E+00 4.21859896E+00-4.63988124E-03 1.10443049E-05    3
-9.34055507E-09 2.80554874E-12 9.84509964E+03 2.28061001E+00 1.09770882E+04    4
OH                IU3/03O   1H   1          G   200.000  6000.000  1000.000    1
 2.83853033E+00 1.10741289E-03-2.94000209E-07 4.20698729E-11-2.42289890E-15    2
 3.69780808E+03 5.84494652E+00 3.99198424E+00-2.40106655E-03 4.61664033E-06    3
-3.87916303E-09 1.36319502E-12 3.36889836E+03-1.03998477E-01 4.48615380E+03    4
H                 L 5/93H   1               G   200.000  6000.000  1000.000    1
 2.50000286E+00-5.65334214E-09 3.63251723E-12-9.19949720E-16 7.95260746E-20    2
 2.54736589E+04-4.46698494E-01 2.50000000E+00 0.00000000E+00 0.00000000E+00    3
 0.00000000E+00 0.00000000E+00 2.54736599E+04-4.46682853E-01 2.62190349E+05    4
CH3               IU0702C   1H   3          G   200.000  6000.000  1000.000    1
 2.97812060E+00 0.57978520E-02-0.19755800E-05 0.30729790E-09-0.17917416E-13    2
 0.16509513E+05 0.47224799E+01 0.36571797E+01 0.21265979E-02 0.54583883E-05    3
-0.66181003E-08 0.24657074E-11 0.16422716E+05 0.16735354E+01 0.17643935E+05    4
O                 L 1/90O   1               G   200.000  6000.000  1000.000    1
 2.54363697E+00-2.73162486E-05-4.19029520E-09 4.95481845E-12-4.79553694E-16    2
 2.92260120E+04 4.92229457E+00 3.16826710E+00-3.27931884E-03 6.64306396E-06    3
-6.12806624E-09 2.11265971E-12 2.91222592E+04 2.05193346E+00 2.99687009E+04    4
CH2O              L 8/88H   2C   1O   1     G   200.000  6000.000  1000.000    1
 0.31694807E+01 0.61932742E-02-0.22505981E-05 0.36598245E-09-0.22015410E-13    2
-0.14478425E+05 0.60423533E+01 0.47937036E+01-9.90815280E-03 3.73214590E-05    3
-3.79279020E-08 1.31770150E-11-1.43089550E+04 6.02887020E-01-0.13059098E+05    4
HCO               T 5/03H   1C   1O   1     G   200.000  6000.000  1000.000    1
 3.92001542E+00 2.52279324E-03-6.71004164E-07 1.05615948E-10-7.43798261E-15    2
 3.65342928E+03 3.58077056E+00 4.23754610E+00-3.32075257E-03 1.40030264E-05    3
-1.34239995E-08 4.37416208E-12 3.87241185E+03 3.30834869E+00 5.08749163E+03    4
CO2               L 7/88C   1O   2          G   200.000  6000.000  1000.000    1
 4.63659493E+00 2.74131991E-03-9.95828531E-07 1.60373011E-10-9.16103468E-15    2
-4.90249341E+04-1.93534855E+00 2.35677352E+00 8.98459677E-03-7.12356269E-06    3
 2.45919022E-09-1.43699548E-13-4.83719697E+04 9.90105222E+00-4.73281047E+04    4
HCN               ATcT/AH   1C   1N   1     G   200.000  6000.000  1000.000    1
 3.80231648E+00 3.14630087E-03-1.06315727E-06 1.66185438E-10-9.79891962E-15    2
 1.42849502E+04 1.57501632E+00 2.25901199E+00 1.00510475E-02-1.33514567E-05    3
 1.00920479E-08-3.00880408E-12 1.45903166E+04 8.91631960E+00 1.56111424E+04    4
H2O               L 8/89H   2O   1          G   200.000  6000.000  1000.000    1
 2.67703787E+00 2.97318329E-03-7.73769690E-07 9.44336689E-11-4.26900959E-15    2
-2.98858938E+04 6.88255571E+00 4.19864056E+00-2.03643410E-03 6.52040211E-06    3
-5.48797062E-09 1.77197817E-12-3.02937267E+04-8.49032208E-01-2.90848168E+04    4
CN                IU8/03C   1N   1          G   200.000  6000.000  1000.000    1
 3.39912850E+00 7.46548662E-04-1.41493852E-07 1.86747736E-11-1.26032540E-15    2
 5.16569715E+04 4.67148681E+00 3.61256069E+00-9.53015737E-04 2.13757271E-06    3
-3.05001808E-10-4.70518097E-13 5.17084034E+04 3.98238772E+00 5.27611901E+04    4
NH2               IU3/03N   1H   2          G   200.000  6000.000  1000.000    1
 2.84768992E+00 3.14280035E-03-8.98641458E-07 1.30318284E-10-7.48812926E-15    2
 2.18239049E+04 6.47165433E+00 4.20556857E+00-2.13561363E-03 7.26851301E-06    3
-5.93069876E-09 1.80690978E-12 2.15352231E+04-1.46662770E-01 2.27475415E+04    4
NH                ATcT/AN   1H   1          G   200.000  6000.000  1000.000    1
 2.78372644E+00 1.32985888E-03-4.24785573E-07 7.83494442E-11-5.50451310E-15    2
 4.23461945E+04 5.74084863E+00 3.49295037E+00 3.11795720E-04-1.48906628E-06    3
 2.48167402E-09-1.03570916E-12 4.21059722E+04 1.84834973E+00 4.31525130E+04    4
N2                G 8/02N   2               G   200.000  6000.000  1000.000    1
 2.95257626E+00 1.39690057E-03-4.92631691E-07 7.86010367E-11-4.60755321E-15    2
-9.23948645E+02 5.87189252E+00 3.53100528E+00-1.23660987E-04-5.02999437E-07    3
 2.43530612E-09-1.40881235E-12-1.04697628E+03 2.96747468E+00 0.00000000E+00    4
CO                TPIS79C   1O   1          G   200.000  6000.000  1000.000    1
 0.30484859E+01 0.13517281E-02-0.48579405E-06 0.78853644E-10-0.46980746E-14    2
-0.14266117E+05 0.60170977E+01 0.35795335E+01-0.61035369E-03 0.10168143E-05    3
 0.90700586E-09-0.90442449E-12-0.14344086E+05 0.35084093E+01-0.13293628E+05    4 
O2                TPIS89O   2               G   200.000  6000.000  1000.000    1
 3.66096083E+00 6.56365523E-04-1.41149485E-07 2.05797658E-11-1.29913248E-15    2
-1.21597725E+03 3.41536184E+00 3.78245636E+00-2.99673415E-03 9.84730200E-06    3
-9.68129508E-09 3.24372836E-12-1.06394356E+03 3.65767573E+00 0.00000000E+00    4 
CH3NN             L 8/88C   1H   3N   2     G   200.000  6000.000  1000.000    1
 0.57393539E+01 0.92314020E-02-0.33396566E-05 0.54160230E-09-0.32522545E-13    2
 0.27235968E+05-0.53905119E+01 0.46506054E+01-0.14932994E-02 0.37619849E-04    3
-0.46522472E-07 0.17885496E-10 0.28216313E+05 0.35837652E+01 0.29785394E+05    4 

END
